project/outputs/reanudacion_20260910/psse_suite/logs/suite_i_genq_varlim0_remote_group.log
PSSE CLI power-flow run configuration
====================================
RAW file: C:\Users\Santiago\Documents\PROYECTO FINAL DE CARRERA - MATPOWER\auditoria_psse_matpower\psse_validation_suite\suite_i_genq_varlim0_remote_group.raw
PSSE executable: C:\Program Files (x86)\PTI\PSSE34\PSSBIN\pssecmd34.exe
RAW output version: 34
Solver: FNSL
Solver option array code form: BAT_FNSL 0 0 0 0 0 0 0 0
Solver option array values: 0 0 0 0 0 0 0 0

Explicit solver option parameters:
- Option 1, tap adjustment flag = 0: disable transformer tap adjustment.
- Option 2, area interchange adjustment flag = 0: disable area interchange adjustment.
- Option 3, phase shift adjustment flag = 0: disable phase-shifter adjustment.
- Option 4, DC tap adjustment flag = 0: disable DC tap adjustment.
- Option 5, switched shunt adjustment flag = 0: disable switched-shunt adjustment.
- Option 6, flat start flag = 0: do not flat start; use voltages already present in the RAW/case.
- Option 7, VAR limit flag = 0: apply generator reactive power limits immediately.
- Option 8, non-divergent solution flag = 0: disable non-divergent Newton solution.

Additional explicit solver parameters:
- RAW GENERAL, THRSHZ=0.0001: set with BAT_SOLUTION_PARAMETERS_4 REALAR(11).
- RAW SOLVER line applied to BAT_FNSL option array: SOLVER, FNSL, ACTAPS=0, AREAIN=0, PHSHFT=0, DCTAPS=0, SWSHNT=0, FLATST=0, VARLIM=0, NONDIV=0
- RAW NEWTON, VCTOLV=0.00001: set with BAT_SOLUTION_PARAMETERS_4 REALAR(18).
- RAW ADJUST, MXTPSS=20: set with BAT_SOLUTION_PARAMETERS_4 INTGAR(4).

Generated PSSE response commands:
  BAT_READ 0 "C:\Users\Santiago\Documents\PROYECTO FINAL DE CARRERA - MATPOWER\auditoria_psse_matpower\psse_validation_suite\suite_i_genq_varlim0_remote_group.raw"
  BAT_SOLUTION_PARAMETERS_4 100 20 20 20 10 1.6 1.6 1 0.0001 1 0.1 1 1E-05 5 0.7 0.0001 0.005 1 0.05 0.99 0.99 0.1 1E-05 100
  BAT_FNSL 0 0 0 0 0 0 0 0
  BAT_LAMP 0 1
  BAT_POUT 0 1
  BAT_LOUT 0 1
  BAT_VCHK 0 1 0.95 1.05
  BAT_RATE_2 0 1 1 1 1 1 100.0
  BAT_REGB 0 1
  BAT_OUTS 0 1
  BAT_SHNT 0 1 1
  BAT_LIST 0 1 1 0
  BAT_LIST 0 1 2 0
  BAT_LIST 0 1 3 0
  BAT_LIST 0 1 4 0
  BAT_LIST 0 1 5 0
  BAT_LIST 0 1 6 0
  BAT_LIST 0 1 7 0
  BAT_LIST 0 1 10 0
  BAT_LIST 0 1 18 0
  BAT_LIST 0 1 20 0
  BAT_LIST 0 1 27 0
  BAT_LIST 0 1 28 0
  BAT_AREA_2 0 1 2
  BAT_ZONE_2 0 1 2
  BAT_WRITERAWVERSION '34' 0 "C:\Users\Santiago\Documents\PROYECTO FINAL DE CARRERA - MATPOWER\outputs\reanudacion_20260910\psse_suite\solved_raw\suite_i_genq_varlim0_remote_group_solved.raw"
  BAT_SAVE "C:\Users\Santiago\Documents\PROYECTO FINAL DE CARRERA - MATPOWER\outputs\reanudacion_20260910\psse_suite\suite_i_genq_varlim0_remote_group.sav"
  STOP

PSSE console output
===================


 PSS(R)E Version 34
 Copyright (c) 1976-2026
 Siemens Industry, Inc.,
 Power Technologies International                            (PTI)
 This program is a confidential  unpublished  work  created  and  first
 licensed in 1976.  It is a trade secret which is the property of  PTI.
 All use,  disclosure,  and/or reproduction not specifically authorized
 by  PTI  is prohibited.   This  program is protected  under  copyright
 laws  of  non-U.S.  countries  and  by  application  of  international
 treaties.  All  Rights  Reserved  Under  The  Copyright  Laws.


           SIEMENS POWER TECHNOLOGIES INTERNATIONAL

      50000 BUS POWER SYSTEM SIMULATOR--PSS(R)E-34.9.3

             INITIATED ON THU, SEP 10 2026  11:21

 ACTIVITY? 
 Reading IC, SBASE, REV, XFRRAT, NXFRAT, BASFRQ...

 Reading two line case heading...

 Reading system-wide data...

 Reading bus data...

 Reading load data...

 Reading fixed bus shunt data...

 Reading generator data...

 Reading non-transformer branch data...

 Reading system switching device data...

 Reading transformer data...

 Reading area interchange data...

 Reading two-terminal dc line data...

 Reading VSC dc line data...

 Reading transformer impedance correction data...

 Reading multi-terminal dc line data...

 Reading multi-section line data...

 Reading zone name data...

 Reading inter-area transfer data...

 Reading owner name data...

 Reading FACTS device data...

 Reading switched shunt data...

 Reading GNE device data...

 Reading induction machine data...

 Reading substation data...
 Batch command complete.
 : 
 No power flow solution parameters changed
 Batch command complete.
 : 
 Ordering network...
 Diagonals = 4   Off-diagonals = 3   Maximum size = 6

  ITER       DELTAP      BUS         DELTAQ      BUS        DELTA/V/      BUS       DELTAANG      BUS
   0         0.0177(      2     )    0.0022(      2     )
                                     0.0040(      5     )
                                                             0.00001(      2     )   0.00081(      2     )
   1         0.0000(      5     )    0.0014(      2     )
                                     0.0023(      5     )
                                                             0.00004(      2     )   0.00001(      2     )
   2         0.0000(      4     )    0.0011(      2     )
                                     0.0018(      5     )
                                                             0.00003(      2     )   0.00000(      2     )
   3         0.0000(      4     )    0.0009(      2     )
                                     0.0014(      5     )
                                                             0.00002(      2     )   0.00000(      2     )
   4         0.0000(      4     )    0.0007(      2     )
                                     0.0011(      5     )
                                                             0.00002(      2     )   0.00000(      2     )
   5         0.0000(      4     )    0.0005(      2     )
                                     0.0009(      5     )


 Reached tolerance in 5 iterations

 Largest mismatch:      0.00 MW      0.09 Mvar      0.09 MVA at bus 5 [REMOTE_BUS  230.00]
 System total absolute mismatch:                    0.17 MVA

 SWING BUS SUMMARY:
   BUS#-SCT X-- NAME --X BASKV      PGEN     PMAX    PMIN      QGEN     QMAX    QMIN
      1     SLACK       230.00     -57.1    400.0  -100.0    -270.7    400.0  -400.0
 Batch command complete.
 :                                         PTI INTERACTIVE POWER SYSTEM SIMULATOR--PSS(R)E     THU, SEP 10 2026  11:21
                         SUITE_I_GENQ_VARLIM0_REMOTE_GROUP                                %MVA FOR TRANSFORMERS
                         GENQ GROUPED CONTROL WITH IMMEDIATE VAR-LIMIT OPTION             % I  FOR NON-TRANSFORMER BRANCHES

 X--------- FROM BUS --------X AREA  VOLT            GEN    LOAD    SHUNT  X------------ TO BUS ------------X                     TRANSFORMER            RATING
   BUS#-SCT X-- NAME --X BASKV ZONE  PU/KV  ANGLE  MW/MVAR MW/MVAR MW/MVAR   BUS#-SCT X-- NAME --X BASKV AREA CKT   MW    MVAR   RATIO   ANGLE   AMPS   %  SET 1

      1     SLACK       230.00    1 1.0000    0.0   -57.1      0.0     0.0 -------------------------------------------------------------------------------------
                                  1 230.00         -270.7R     0.0    -0.0      2     GEN_A       230.00    1  1   -28.2 -149.4                   382  51   753A
                                                                                3     GEN_B       230.00    1  1   -28.9 -121.2                   313  42   753A
      2     GEN_A       230.00    1 1.0761    0.4    80.0      0.0     0.0 -------------------------------------------------------------------------------------
                                  1 247.51          209.9R     0.0    -0.0      1     SLACK       230.00    1  1    29.3  161.0                   382  51   753A
                                                                                4     TIE         230.00    1  1    50.7   48.8                   164  22   753A
      3     GEN_B       230.00    1 1.0621    0.5    80.0      0.0     0.0 -------------------------------------------------------------------------------------
                                  1 244.28          139.9R     0.0    -0.0      1     SLACK       230.00    1  1    29.7  129.0                   313  42   753A
                                                                                4     TIE         230.00    1  1    50.3   10.9                   122  16   753A
      4     TIE         230.00    1 1.0558   -0.5     0.0      0.0     0.0 -------------------------------------------------------------------------------------
                                  1 242.83            0.0      0.0    -0.0      2     GEN_A       230.00    1  1   -50.4  -47.1                   164  22   753A
                                                                                3     GEN_B       230.00    1  1   -50.2  -10.0                   122  16   753A
                                                                                5     REMOTE_BUS  230.00    1  1   100.6   57.1                   275  37   753A
      5     REMOTE_BUS  230.00    1 1.0200   -3.6     0.0    100.0     0.0 -------------------------------------------------------------------------------------
                                  1 234.60            0.0     50.0    -0.0      4     TIE         230.00    1  1  -100.0  -49.9                   275  37   753A

 Output completed
 Batch command complete.
 :      PTI INTERACTIVE POWER SYSTEM SIMULATOR--PSS(R)E     THU, SEP 10 2026  11:21
 SUITE_I_GENQ_VARLIM0_REMOTE_GROUP                                        RATING   %MVA FOR TRANSFORMERS
 GENQ GROUPED CONTROL WITH IMMEDIATE VAR-LIMIT OPTION                     SET  1   % I  FOR NON-TRANSFORMER BRANCHES

 BUS      1     SLACK       230.00 CKT     MW     MVAR     MVA   % 1.0000PU    0.00  X--- LOSSES ---X X---- AREA -----X X---- ZONE -----X      1
  FROM GENERATION                        -57.1  -270.7R  276.6 277 230.00KV               MW     MVAR    1 AREA1           1 ZONE1
  TO      2     GEN_A       230.00  1    -28.2  -149.4   152.1  51                       1.16   11.56    1 AREA1           1 ZONE1
  TO      3     GEN_B       230.00  1    -28.9  -121.2   124.6  42                       0.78    7.77    1 AREA1           1 ZONE1

 BUS      2     GEN_A       230.00 CKT     MW     MVAR     MVA   % 1.0761PU    0.35  X--- LOSSES ---X X---- AREA -----X X---- ZONE -----X      2
  FROM GENERATION                         80.0   209.9R  224.6 225 247.51KV               MW     MVAR    1 AREA1           1 ZONE1
  TO      1     SLACK       230.00  1     29.3   161.0   163.7  51                       1.16   11.56    1 AREA1           1 ZONE1
  TO      4     TIE         230.00  1     50.7    48.8    70.4  22                       0.21    1.71    1 AREA1           1 ZONE1

 BUS      3     GEN_B       230.00 CKT     MW     MVAR     MVA   % 1.0621PU    0.45  X--- LOSSES ---X X---- AREA -----X X---- ZONE -----X      3
  FROM GENERATION                         80.0   139.9R  161.2 161 244.28KV               MW     MVAR    1 AREA1           1 ZONE1
  TO      1     SLACK       230.00  1     29.7   129.0   132.4  42                       0.78    7.77    1 AREA1           1 ZONE1
  TO      4     TIE         230.00  1     50.3    10.9    51.5  16                       0.12    0.94    1 AREA1           1 ZONE1

 BUS      4     TIE         230.00 CKT     MW     MVAR     MVA   % 1.0558PU   -0.55  X--- LOSSES ---X X---- AREA -----X X---- ZONE -----X      4
                                                                   242.83KV               MW     MVAR    1 AREA1           1 ZONE1
  TO      2     GEN_A       230.00  1    -50.4   -47.1    69.0  22                       0.21    1.71    1 AREA1           1 ZONE1
  TO      3     GEN_B       230.00  1    -50.2   -10.0    51.1  16                       0.12    0.94    1 AREA1           1 ZONE1
  TO      5     REMOTE_BUS  230.00  1    100.6    57.1   115.7  37                       0.60    7.20    1 AREA1           1 ZONE1

 BUS      5     REMOTE_BUS  230.00 CKT     MW     MVAR     MVA   % 1.0200PU   -3.61  X--- LOSSES ---X X---- AREA -----X X---- ZONE -----X      5
                                                                   234.60KV               MW     MVAR    1 AREA1           1 ZONE1
  TO LOAD-PQ                             100.0    50.0   111.8
  TO      4     TIE         230.00  1   -100.0   -49.9   111.8  37                       0.60    7.20    1 AREA1           1 ZONE1

 Output completed
 Batch command complete.
 :                                         PTI INTERACTIVE POWER SYSTEM SIMULATOR--PSS(R)E     THU, SEP 10 2026  11:21
                         SUITE_I_GENQ_VARLIM0_REMOTE_GROUP                                %MVA FOR TRANSFORMERS
                         GENQ GROUPED CONTROL WITH IMMEDIATE VAR-LIMIT OPTION             % I  FOR NON-TRANSFORMER BRANCHES

 X--------- FROM BUS --------X AREA  VOLT            GEN    LOAD    SHUNT  X------------ TO BUS ------------X                        TRANSFORMER     RATING
   BUS#-SCT X-- NAME --X BASKV ZONE  PU/KV  ANGLE  MW/MVAR MW/MVAR MW/MVAR   BUS#-SCT X-- NAME --X BASKV AREA CKT    MW     MVAR    RATIO   ANGLE   %  SET 1

      1     SLACK       230.00    1 1.0000    0.0   -57.1      0.0     0.0 ---------------------------------------------------------------------------------
                                  1 230.00         -270.7R     0.0    -0.0      2     GEN_A       230.00    1  1    -28.2  -149.4                   51   300
                                                                                3     GEN_B       230.00    1  1    -28.9  -121.2                   42   300
      2     GEN_A       230.00    1 1.0761    0.4    80.0      0.0     0.0 ---------------------------------------------------------------------------------
                                  1 247.51          209.9R     0.0    -0.0      1     SLACK       230.00    1  1     29.3   161.0                   51   300
                                                                                4     TIE         230.00    1  1     50.7    48.8                   22   300
      3     GEN_B       230.00    1 1.0621    0.5    80.0      0.0     0.0 ---------------------------------------------------------------------------------
                                  1 244.28          139.9R     0.0    -0.0      1     SLACK       230.00    1  1     29.7   129.0                   42   300
                                                                                4     TIE         230.00    1  1     50.3    10.9                   16   300
      4     TIE         230.00    1 1.0558   -0.5     0.0      0.0     0.0 ---------------------------------------------------------------------------------
                                  1 242.83            0.0      0.0    -0.0      2     GEN_A       230.00    1  1    -50.4   -47.1                   22   300
                                                                                3     GEN_B       230.00    1  1    -50.2   -10.0                   16   300
                                                                                5     REMOTE_BUS  230.00    1  1    100.6    57.1                   37   300
      5     REMOTE_BUS  230.00    1 1.0200   -3.6     0.0    100.0     0.0 ---------------------------------------------------------------------------------
                                  1 234.60            0.0     50.0    -0.0      4     TIE         230.00    1  1   -100.0   -49.9                   37   300

 Output completed
 Batch command complete.
 :      PTI INTERACTIVE POWER SYSTEM SIMULATOR--PSS(R)E     THU, SEP 10 2026  11:21
 SUITE_I_GENQ_VARLIM0_REMOTE_GROUP
 GENQ GROUPED CONTROL WITH IMMEDIATE VAR-LIMIT OPTION

 BUSES WITH VOLTAGE GREATER THAN 1.0500:

   BUS#-SCT X-- NAME --X BASKV AREA  V(PU)  V(KV)      BUS#-SCT X-- NAME --X BASKV AREA  V(PU)  V(KV)
      2     GEN_A       230.00    1 1.0761 247.51         3     GEN_B       230.00    1 1.0621 244.28
      4     TIE         230.00    1 1.0558 242.83


 BUSES WITH VOLTAGE LESS THAN 0.9500:

   BUS#-SCT X-- NAME --X BASKV AREA  V(PU)  V(KV)      BUS#-SCT X-- NAME --X BASKV AREA  V(PU)  V(KV)

                                            * NONE *

 Output completed
 Batch command complete.
 :      PTI INTERACTIVE POWER SYSTEM SIMULATOR--PSS(R)E     THU, SEP 10 2026  11:21
 SUITE_I_GENQ_VARLIM0_REMOTE_GROUP
 GENQ GROUPED CONTROL WITH IMMEDIATE VAR-LIMIT OPTION

 SUBSYSTEM LOADING CHECK (INCLUDED: LINES; BREAKERS AND SWITCHES; TRANSFORMERS) (EXCLUDED: NONE)
 LOADINGS ABOVE 100.0 % OF RATING SET 1 (MVA FOR TRANSFORMERS, CURRENT FOR NON-TRANSFORMER BRANCHES):

 X----------- FROM BUS ------------X X------------ TO BUS -------------X
   BUS#-SCT X-- NAME --X BASKV  AREA   BUS#-SCT X-- NAME --X BASKV  AREA CKT LOADING   RATE1 PERCENT

                                   * NONE *

 Output completed
 Batch command complete.
 :      PTI INTERACTIVE POWER SYSTEM SIMULATOR--PSS(R)E     THU, SEP 10 2026  11:21
 SUITE_I_GENQ_VARLIM0_REMOTE_GROUP
 GENQ GROUPED CONTROL WITH IMMEDIATE VAR-LIMIT OPTION

                                 X--VOLTAGE--X     X--SCHEDULED--X  X--VIOLATION--X
 X------ REGULATED  BUS -------X   P.U.    KV          VOLTAGE        P.U.     KV   X----------------------------- CONTROLLING  EQUIPMENT -----------------------------X
      1     [SLACK       230.00] 1.00000 230.0         1.00000                      LOCAL  GENERATION      1     [SLACK       230.00]

      5     [REMOTE_BUS  230.00] 1.02000 234.6         1.02000                      REMOTE GENERATION      2     [GEN_A       230.00]
                                                       1.02000                      REMOTE GENERATION      3     [GEN_B       230.00]

 Output completed
 Batch command complete.
 :      PTI INTERACTIVE POWER SYSTEM SIMULATOR--PSS(R)E     THU, SEP 10 2026  11:21
 SUITE_I_GENQ_VARLIM0_REMOTE_GROUP
 GENQ GROUPED CONTROL WITH IMMEDIATE VAR-LIMIT OPTION

 OUT-OF-SERVICE BRANCHES:

 X----------- FROM BUS -----------X  X------------ TO BUS ------------X
   BUS#-SCT X-- NAME --X BASKV AREA    BUS#-SCT X-- NAME --X BASKV AREA  CKT

                                  ** NONE **


 OUT-OF-SERVICE THREE-WINDING TRANSFORMERS:

                                          X-------- WINDING 1 BUS ---------X X-------- WINDING 2 BUS ---------X X-------- WINDING 3 BUS ---------X
 X---------- TRANSFORMER NAME ----------X   BUS#-SCT X-- NAME --X BASKV AREA   BUS#-SCT X-- NAME --X BASKV AREA   BUS#-SCT X-- NAME --X BASKV AREA CKT

                                  ** NONE **


 ISOLATED BUSES:

 X-------------- BUS --------------X  X-------------- BUS --------------X  X-------------- BUS --------------X
   BUS#-SCT X-- NAME --X BASKV  AREA    BUS#-SCT X-- NAME --X BASKV  AREA    BUS#-SCT X-- NAME --X BASKV  AREA

                                  ** NONE **


 OUT-OF-SERVICE PLANTS:

 X-------------- BUS --------------X  X-------------- BUS --------------X  X-------------- BUS --------------X
   BUS#-SCT X-- NAME --X BASKV  AREA    BUS#-SCT X-- NAME --X BASKV  AREA    BUS#-SCT X-- NAME --X BASKV  AREA

                                  ** NONE **


 OUT-OF-SERVICE MACHINES AT IN-SERVICE PLANTS:

 X--------------- BUS ---------------X  X--------------- BUS ---------------X  X--------------- BUS ---------------X
   BUS#-SCT X-- NAME --X BASKV ID AREA    BUS#-SCT X-- NAME --X BASKV ID AREA    BUS#-SCT X-- NAME --X BASKV ID AREA

                                  ** NONE **


 OUT-OF-SERVICE INDUCTION MACHINES AT IN-SERVICE BUSES:

 X--------------- BUS ---------------X  X--------------- BUS ---------------X  X--------------- BUS ---------------X
   BUS#-SCT X-- NAME --X BASKV ID AREA    BUS#-SCT X-- NAME --X BASKV ID AREA    BUS#-SCT X-- NAME --X BASKV ID AREA

                                  ** NONE **


 OUT-OF-SERVICE LOADS AT IN-SERVICE BUSES:

 X--------------- BUS ---------------X  X--------------- BUS ---------------X  X--------------- BUS ---------------X
   BUS#-SCT X-- NAME --X BASKV ID AREA    BUS#-SCT X-- NAME --X BASKV ID AREA    BUS#-SCT X-- NAME --X BASKV ID AREA

                                  ** NONE **


 OUT-OF-SERVICE FIXED SHUNTS AT IN-SERVICE BUSES:

 X--------------- BUS ---------------X  X--------------- BUS ---------------X  X--------------- BUS ---------------X
   BUS#-SCT X-- NAME --X BASKV ID AREA    BUS#-SCT X-- NAME --X BASKV ID AREA    BUS#-SCT X-- NAME --X BASKV ID AREA

                                  ** NONE **


 BLOCKED TWO-TERMINAL DC LINES:

 X-2TERM DC-X  X-------- RECTIFIER --------X  X-------- INVERTER ---------X
 X-- NAME --X    BUS#-SCT X-- NAME --X BASKV    BUS#-SCT X-- NAME --X BASKV

                                  ** NONE **


 BLOCKED MULTI-TERMINAL DC LINES:

 X-MTERM DC-X  X-------- CONVERTER --------X  X-------- CONVERTER --------X  X-------- CONVERTER --------X
 X-- NAME --X    BUS#-SCT X-- NAME --X BASKV    BUS#-SCT X-- NAME --X BASKV    BUS#-SCT X-- NAME --X BASKV

                                  ** NONE **


 BLOCKED VSC DC LINES:

 X--VSC DC--X  X------ CONVERTER BUS ------X  X------ CONVERTER BUS ------X
 X-- NAME --X    BUS#-SCT X-- NAME --X BASKV    BUS#-SCT X-- NAME --X BASKV

                                  ** NONE **


 OUT-OF-SERVICE CONVERTERS AT IN-SERVICE VSC DC LINES:

 X--VSC DC--X  X------ CONVERTER BUS ------X  X------ CONVERTER BUS ------X
 X-- NAME --X    BUS#-SCT X-- NAME --X BASKV    BUS#-SCT X-- NAME --X BASKV

                                  ** NONE **


 BLOCKED FACTS CONTROL DEVICES:

 X--DEVICE--X  X------- SENDING BUS -------X  X------ TERMINAL BUS -------X
 X-- NAME --X    BUS#-SCT X-- NAME --X BASKV    BUS#-SCT X-- NAME --X BASKV

                                  ** NONE **


 OUT-OF-SERVICE GNE DEVICES:

 X--DEVICE--X  X-------- FROM BUS ---------X  X--------- TO BUS ----------X
 X-- NAME --X    BUS#-SCT X-- NAME --X BASKV    BUS#-SCT X-- NAME --X BASKV

                                  ** NONE **

 Output completed
 Batch command complete.
 :      PTI INTERACTIVE POWER SYSTEM SIMULATOR--PSS(R)E     THU, SEP 10 2026  11:21
 SUITE_I_GENQ_VARLIM0_REMOTE_GROUP                                         SHUNT
 GENQ GROUPED CONTROL WITH IMMEDIATE VAR-LIMIT OPTION                    SUMMARY

                                                 N O M I N A L
   BUS#-SCT X-- NAME --X BASKV CODE ID STAT       MW      MVAR  VOLTAGE  TYPE    MODE ADJM     BMIN      BMAX

                                    * NONE *

 Output completed
 Batch command complete.
 :      PTI INTERACTIVE POWER SYSTEM SIMULATOR--PSS(R)E     THU, SEP 10 2026  11:21
 SUITE_I_GENQ_VARLIM0_REMOTE_GROUP                                SYSTEM SUMMARY
 GENQ GROUPED CONTROL WITH IMMEDIATE VAR-LIMIT OPTION

 ---------------------BUSES----------------------        -----GENERATION----- ----SHUNTS----- -IND MACHS- FACTS   GNE
  TOTAL  PQ<>0.  PQ=0.  PE/E   PE/Q  SWING  OTHER  LOADS PLANTS MACHNS   WIND  FIXED SWITCHED GENS MOTORS  DEVS  DEVS
      5      1      1      2      0      1      0      1      3      3      0      0      0      0      0     0     0
 ------------------AC BRANCHES------------------- 3WIND MULTI-SECTION ---DC LINES--                    AREA X------- SWING BUSES -------X
  TOTAL    RXB     RX    RXT   RX=0.    IN    OUT XFORM  LINES SECTNS 2TRM MTRM VSC AREAS ZONES OWNRS TRANS      1     SLACK       230.00
      5      0      5      0      0      5      0     0      0      0    0    0   0     1     1     1     0
      ----GENERATION---- INDUCTION                                       GNE
 TOTAL   SYNCHR  INDUCTN   MOTORS   PQLOAD   I LOAD   Y LOAD   SHUNTS  DEVICES CHARGING   LOSSES    SWING
 MW       102.9      0.0      0.0    100.0      0.0      0.0      0.0      0.0      0.0      2.9    -57.1
 MVAR      79.2      0.0      0.0     50.0      0.0      0.0     -0.0      0.0      0.0     29.2   -270.7

 TOTAL MISMATCH =    0.17 MVA X--------- AT BUS ----------X   THRSHZ  PQBRAK BLOWUP  SBASE MXTPSS
  MAX. MISMATCH =    0.09 MVA      5     REMOTE_BUS  230.00  0.000100  0.700   5.00 100.00   20
   HIGH VOLTAGE = 1.07615 PU       2     GEN_A       230.00   ADJTHR  ACCTAP TAPLIM SWVBND MXSWIM
   LOW  VOLTAGE = 1.00000 PU       1     SLACK       230.00   0.0050  1.0000 0.0500  100.0   10

 X------ SOLV AND MSLV ------X  X----------------- NEWTON ------------------X  X----- TYSL -----X
  ACCP  ACCQ  ACCM   TOL  ITER  ACCN  TOLN  VCTOLQ  VCTOLV ITER  DVLIM NDVFCT  ACCTY    TOL  ITER
 1.600 1.600 1.000 0.00010 100  1.00 0.1000 0.1000 0.000010  20 0.9900 0.9900  1.000 0.000010  20
     PTI INTERACTIVE POWER SYSTEM SIMULATOR--PSS(R)E     THU, SEP 10 2026  11:21
 SUITE_I_GENQ_VARLIM0_REMOTE_GROUP                                       WORST
 GENQ GROUPED CONTROL WITH IMMEDIATE VAR-LIMIT OPTION                 MISMATCHES
   BUS#-SCT X-- NAME --X BASKV       MW       MVAR       MVA
      5     REMOTE_BUS  230.00      0.00     -0.09      0.09
      2     GEN_A       230.00      0.00      0.05      0.05
      3     GEN_B       230.00     -0.00      0.03      0.03
     PTI INTERACTIVE POWER SYSTEM SIMULATOR--PSS(R)E     THU, SEP 10 2026  11:21
 SUITE_I_GENQ_VARLIM0_REMOTE_GROUP                                    RATING SET
 GENQ GROUPED CONTROL WITH IMMEDIATE VAR-LIMIT OPTION                UTILIZATION
 RATING SET  -NAME-  X---------DESCRIPTION----------X  # NON-ZERO RATINGS
      1      RATE1   RATING SET 1                                 5
      2      RATE2   RATING SET 2                                 5
      3      RATE3   RATING SET 3                                 5
      4      RATE4   RATING SET 4                                 0
      5      RATE5   RATING SET 5                                 0
      6      RATE6   RATING SET 6                                 0
      7      RATE7   RATING SET 7                                 0
      8      RATE8   RATING SET 8                                 0
      9      RATE9   RATING SET 9                                 0
     10      RATE10  RATING SET 10                                0
     11      RATE11  RATING SET 11                                0
     12      RATE12  RATING SET 12                                0

 Output completed
 Batch command complete.
 :      PTI INTERACTIVE POWER SYSTEM SIMULATOR--PSS(R)E     THU, SEP 10 2026  11:21
 SUITE_I_GENQ_VARLIM0_REMOTE_GROUP                                      BUS DATA
 GENQ GROUPED CONTROL WITH IMMEDIATE VAR-LIMIT OPTION
                                           S H U N T S                                 X--- NORMAL --X  X- EMERGENCY -X
   BUS#-SCT X-- NAME --X BASKV CODE LOADS FIXED SWITCHED  VOLT   ANGLE AREA ZONE OWNER   VMAX    VMIN     VMAX    VMIN
      1     SLACK       230.00   3    0     0      0    1.00000    0.0    1    1    1  1.10000 0.90000  1.10000 0.90000
      2     GEN_A       230.00   2    0     0      0    1.07615    0.4    1    1    1  1.10000 0.90000  1.10000 0.90000
      3     GEN_B       230.00   2    0     0      0    1.06209    0.5    1    1    1  1.10000 0.90000  1.10000 0.90000
      4     TIE         230.00   1    0     0      0    1.05577   -0.5    1    1    1  1.10000 0.90000  1.10000 0.90000
      5     REMOTE_BUS  230.00   1    1     0      0    1.02000   -3.6    1    1    1  1.10000 0.90000  1.10000 0.90000

 Output completed
 Batch command complete.
 :      PTI INTERACTIVE POWER SYSTEM SIMULATOR--PSS(R)E     THU, SEP 10 2026  11:21
 SUITE_I_GENQ_VARLIM0_REMOTE_GROUP                                     SWITCHED
 GENQ GROUPED CONTROL WITH IMMEDIATE VAR-LIMIT OPTION                 SHUNT DATA
                                   S ADJ                                                                       X-------- REGULATED BUS ---------X X--FACTS/--X
   BUS#-SCT X-- NAME --X BASKV MOD T METH VHI    VLO     SHUNT  X-------X X-------X X-------X X-------X  PCT Q   BUS#-SCT X-- NAME --X BASKV NODE X-VSC NAME-X

                                    * NONE *

 Output completed
 Batch command complete.
 :      PTI INTERACTIVE POWER SYSTEM SIMULATOR--PSS(R)E     THU, SEP 10 2026  11:21
 SUITE_I_GENQ_VARLIM0_REMOTE_GROUP                                    GENERATING
 GENQ GROUPED CONTROL WITH IMMEDIATE VAR-LIMIT OPTION                 PLANT DATA
                                                                                       X-------- REGULATED BUS ---------X
   BUS#-SCT X-- NAME --X BASKV COD MCNS PGEN   QGEN   QMAX   QMIN VSCHED  VACT.  PCT Q   BUS#-SCT X-- NAME --X BASKV NODE
      1     SLACK       230.00  3   1  -57.1 -270.7  400.0 -400.0 1.0000 1.0000  100.0      1     SLACK       230.00    0
      2     GEN_A       230.00  2   1   80.0  209.9  300.0 -300.0 1.0200 1.0200   60.0      5     REMOTE_BUS  230.00    0
      3     GEN_B       230.00  2   1   80.0  139.9  300.0 -300.0 1.0200 1.0200   40.0      5     REMOTE_BUS  230.00    0

 Output completed
 Batch command complete.
 :      PTI INTERACTIVE POWER SYSTEM SIMULATOR--PSS(R)E     THU, SEP 10 2026  11:21
 SUITE_I_GENQ_VARLIM0_REMOTE_GROUP                                     GENERATOR
 GENQ GROUPED CONTROL WITH IMMEDIATE VAR-LIMIT OPTION                  UNIT DATA
   BUS#-SCT X-- NAME --X BASKV CD ID ST  PGEN   QGEN   QMAX   QMIN   PMAX   PMIN  OWN FRACT  OWN FRACT  MBASE  Z S O R C E    X T R A N    GENTAP WMOD  WPF
      1     SLACK       230.00  3 1  1  -57.1 -270.7  400.0 -400.0  400.0 -100.0    1 1.000             100.0 0.0000 1.0000
      2     GEN_A       230.00  2 1  1   80.0  209.9  300.0 -300.0  150.0    0.0    1 1.000             100.0 0.0000 1.0000
      3     GEN_B       230.00  2 1  1   80.0  139.9  300.0 -300.0  150.0    0.0    1 1.000             100.0 0.0000 1.0000

 Output completed
 Batch command complete.
 :      PTI INTERACTIVE POWER SYSTEM SIMULATOR--PSS(R)E     THU, SEP 10 2026  11:21
 SUITE_I_GENQ_VARLIM0_REMOTE_GROUP                                   BRANCH DATA
 GENQ GROUPED CONTROL WITH IMMEDIATE VAR-LIMIT OPTION
 X-------- FROM BUS ---------X  X--------- TO BUS ----------X                                Z S
   BUS#-SCT X-- NAME --X BASKV    BUS#-SCT X-- NAME --X BASKV CKT   R (PU)   X (PU)   B (PU) I T  RATE1  RATE2  RATE3 LENGTH OWN1 FRAC1 OWN2 FRAC2 OWN3 FRAC3 OWN4 FRAC4
      1     SLACK       230.00*      2     GEN_A       230.00  1   0.00500  0.05000  0.00000   1  300.0  300.0  300.0   10.0    1 1.000
      1     SLACK       230.00*      3     GEN_B       230.00  1   0.00500  0.05000  0.00000   1  300.0  300.0  300.0   10.0    1 1.000
      2     GEN_A       230.00*      4     TIE         230.00  1   0.00500  0.04000  0.00000   1  300.0  300.0  300.0   10.0    1 1.000
      3     GEN_B       230.00*      4     TIE         230.00  1   0.00500  0.04000  0.00000   1  300.0  300.0  300.0   10.0    1 1.000
      4     TIE         230.00*      5     REMOTE_BUS  230.00  1   0.00500  0.06000  0.00000   1  300.0  300.0  300.0   10.0    1 1.000

 Output completed
 Batch command complete.
 :      PTI INTERACTIVE POWER SYSTEM SIMULATOR--PSS(R)E     THU, SEP 10 2026  11:21
 SUITE_I_GENQ_VARLIM0_REMOTE_GROUP                                   BRANCH DATA
 GENQ GROUPED CONTROL WITH IMMEDIATE VAR-LIMIT OPTION
 X-------- FROM BUS ---------X  X--------- TO BUS ----------X                                Z S
   BUS#-SCT X-- NAME --X BASKV    BUS#-SCT X-- NAME --X BASKV CKT   R (PU)   X (PU)   B (PU) I T  RATE1  RATE2  RATE3 LENGTH OWN1 FRAC1 OWN2 FRAC2 OWN3 FRAC3 OWN4 FRAC4
      1     SLACK       230.00*      2     GEN_A       230.00  1   0.00500  0.05000  0.00000   1  300.0  300.0  300.0   10.0    1 1.000
      1     SLACK       230.00*      3     GEN_B       230.00  1   0.00500  0.05000  0.00000   1  300.0  300.0  300.0   10.0    1 1.000
      2     GEN_A       230.00       1     SLACK       230.00* 1   0.00500  0.05000  0.00000   1  300.0  300.0  300.0   10.0    1 1.000
      2     GEN_A       230.00*      4     TIE         230.00  1   0.00500  0.04000  0.00000   1  300.0  300.0  300.0   10.0    1 1.000
      3     GEN_B       230.00       1     SLACK       230.00* 1   0.00500  0.05000  0.00000   1  300.0  300.0  300.0   10.0    1 1.000
      3     GEN_B       230.00*      4     TIE         230.00  1   0.00500  0.04000  0.00000   1  300.0  300.0  300.0   10.0    1 1.000
      4     TIE         230.00       2     GEN_A       230.00* 1   0.00500  0.04000  0.00000   1  300.0  300.0  300.0   10.0    1 1.000
      4     TIE         230.00       3     GEN_B       230.00* 1   0.00500  0.04000  0.00000   1  300.0  300.0  300.0   10.0    1 1.000
      4     TIE         230.00*      5     REMOTE_BUS  230.00  1   0.00500  0.06000  0.00000   1  300.0  300.0  300.0   10.0    1 1.000
      5     REMOTE_BUS  230.00       4     TIE         230.00* 1   0.00500  0.06000  0.00000   1  300.0  300.0  300.0   10.0    1 1.000

 Output completed
 Batch command complete.
 :      PTI INTERACTIVE POWER SYSTEM SIMULATOR--PSS(R)E     THU, SEP 10 2026  11:21
 SUITE_I_GENQ_VARLIM0_REMOTE_GROUP
 GENQ GROUPED CONTROL WITH IMMEDIATE VAR-LIMIT OPTION               DC LINE DATA

                                    * NONE *

 Output completed
 Batch command complete.
 :      PTI INTERACTIVE POWER SYSTEM SIMULATOR--PSS(R)E     THU, SEP 10 2026  11:21
 SUITE_I_GENQ_VARLIM0_REMOTE_GROUP                                     LOAD DATA
 GENQ GROUPED CONTROL WITH IMMEDIATE VAR-LIMIT OPTION
   BUS#-SCT X-- NAME --X BASKV ID CD ST   PSI     MVA-LOAD      CUR-LOAD      Y - LOAD  AREA ZONE OWNER SCALE INTRPT     DGEN-MVA  DGEN-FLAG
      5     REMOTE_BUS  230.00 1   1 1  1.000  100.0   50.0    0.0    0.0    0.0    0.0    1    1    1   YES     NO     0.0    0.0     OFF

 Output completed
 Batch command complete.
 :      PTI INTERACTIVE POWER SYSTEM SIMULATOR--PSS(R)E     THU, SEP 10 2026  11:21
 SUITE_I_GENQ_VARLIM0_REMOTE_GROUP                                 FACTS SENDING
 GENQ GROUPED CONTROL WITH IMMEDIATE VAR-LIMIT OPTION                 END DATA
 X- DEVICE -X X------- SENDING BUS -------X X------ TERMINAL BUS -------X                                         X-------- REGULATED BUS ---------X X- MASTER -X
 X-- NAME --X   BUS#-SCT X-- NAME --X BASKV   BUS#-SCT X-- NAME --X BASKV MODE  V SET SHNTMX  PCT Q  BRDGMX OWNER   BUS#-SCT X-- NAME --X BASKV NODE X-- NAME --X

                                    * NONE *

 Output completed
 Batch command complete.
 :      PTI INTERACTIVE POWER SYSTEM SIMULATOR--PSS(R)E     THU, SEP 10 2026  11:21
 SUITE_I_GENQ_VARLIM0_REMOTE_GROUP                                FACTS TERMINAL
 GENQ GROUPED CONTROL WITH IMMEDIATE VAR-LIMIT OPTION                END DATA
 X- DEVICE -X X------- SENDING BUS -------X X------ TERMINAL BUS -------X
 X-- NAME --X   BUS#-SCT X-- NAME --X BASKV   BUS#-SCT X-- NAME --X BASKV MODE  PDES   QDES  VTMAX  VTMIN  VSMAX ISMAX  LINE X VSREF   SET1     SET2

                                    * NONE *

 Output completed
 Batch command complete.
 :      PTI INTERACTIVE POWER SYSTEM SIMULATOR--PSS(R)E     THU, SEP 10 2026  11:21
 SUITE_I_GENQ_VARLIM0_REMOTE_GROUP                                       FIXED
 GENQ GROUPED CONTROL WITH IMMEDIATE VAR-LIMIT OPTION                 SHUNT DATA
   BUS#-SCT X-- NAME --X BASKV ID CODE STAT       S H U N T

                                    * NONE *

 Output completed
 Batch command complete.
 :      PTI INTERACTIVE POWER SYSTEM SIMULATOR--PSS(R)E     THU, SEP 10 2026  11:21
 SUITE_I_GENQ_VARLIM0_REMOTE_GROUP                                   AREA TOTALS
 GENQ GROUPED CONTROL WITH IMMEDIATE VAR-LIMIT OPTION                 IN MW/MVAR
                 FROM ---ASSIGNED TO THE AREA---              TO                               -NET INTERCHANGE-
                GENE- FROM IND   TO IND       TO   TO BUS  GNE BUS  TO LINE     FROM     TO     TO TIE  TO TIES  DESIRED
 X-- AREA --X  RATION GENERATN   MOTORS     LOAD    SHUNT  DEVICES    SHUNT CHARGING   LOSSES    LINES  + LOADS  NET INT

    1           102.9      0.0      0.0    100.0      0.0      0.0      0.0      0.0      2.9      0.0      0.0      0.0
 AREA1           79.2      0.0      0.0     50.0     -0.0      0.0     -0.0      0.0     29.2      0.0      0.0

 COLUMN         102.9      0.0      0.0    100.0      0.0      0.0      0.0      0.0      2.9      0.0      0.0      0.0
 TOTALS          79.2      0.0      0.0     50.0      0.0      0.0      0.0      0.0     29.2      0.0      0.0

 Output completed
 Batch command complete.
 :      PTI INTERACTIVE POWER SYSTEM SIMULATOR--PSS(R)E     THU, SEP 10 2026  11:21
 SUITE_I_GENQ_VARLIM0_REMOTE_GROUP                                   ZONE TOTALS
 GENQ GROUPED CONTROL WITH IMMEDIATE VAR-LIMIT OPTION                 IN MW/MVAR
                 FROM ---ASSIGNED TO THE ZONE---              TO                               -NET INTERCHANGE-
                GENE- FROM IND   TO IND       TO   TO BUS  GNE BUS  TO LINE     FROM     TO     TO TIE  TO TIES
 X-- ZONE --X  RATION GENERATN   MOTORS     LOAD    SHUNT  DEVICES    SHUNT CHARGING   LOSSES    LINES  + LOADS

    1           102.9      0.0      0.0    100.0      0.0      0.0      0.0      0.0      2.9      0.0      0.0
 ZONE1           79.2      0.0      0.0     50.0     -0.0      0.0     -0.0      0.0     29.2      0.0      0.0

 COLUMN         102.9      0.0      0.0    100.0      0.0      0.0      0.0      0.0      2.9      0.0      0.0
 TOTALS          79.2      0.0      0.0     50.0      0.0      0.0      0.0      0.0     29.2      0.0      0.0

 Output completed
 Batch command complete.
 : 
 Output completed
 Batch command complete.
 : 
 Case saved in file C:\Users\Santiago\Documents\PROYECTO FINAL DE CARRERA - MATPOWER\outputs\reanudacion_20260910\psse_suite\suite_i_genq_varlim0_remote_group.sav on THU, SEP 10 2026  11:21
 Batch command complete.
 : 